Version 4
SHEET 1 980 680
WIRE 688 0 528 0
WIRE 832 0 688 0
WIRE 528 32 528 0
WIRE 688 48 688 0
WIRE 256 144 192 144
WIRE 368 144 336 144
WIRE 416 144 368 144
WIRE 528 144 528 112
WIRE 528 144 496 144
WIRE 576 144 528 144
WIRE 688 144 688 112
WIRE 688 144 656 144
WIRE 736 144 688 144
WIRE 832 160 832 0
WIRE 832 160 800 160
WIRE 864 160 832 160
WIRE 192 176 192 144
WIRE 368 176 368 144
WIRE 528 176 528 144
WIRE 736 176 704 176
WIRE 368 256 368 240
WIRE 528 256 528 240
WIRE 704 256 704 176
WIRE 192 272 192 256
FLAG 192 272 0
FLAG 528 256 0
FLAG 704 256 0
FLAG 368 256 0
FLAG 864 160 OUT
IOPIN 864 160 Out
SYMBOL voltage 192 160 R0
WINDOW 3 -53 155 Left 2
WINDOW 123 24 124 Left 2
WINDOW 39 0 0 Left 2
SYMATTR Value PULSE(-1 1 0 2.5u 2.5u 0 5u)
SYMATTR Value2 AC 1
SYMATTR InstName V1
SYMBOL res 512 128 R90
WINDOW 0 0 56 VBottom 2
WINDOW 3 32 56 VTop 2
SYMATTR InstName R2
SYMATTR Value 820
SYMBOL res 672 128 R90
WINDOW 0 0 56 VBottom 2
WINDOW 3 32 56 VTop 2
SYMATTR InstName R3
SYMATTR Value 2.2k
SYMBOL cap 512 176 R0
SYMATTR InstName C2
SYMATTR Value 1000p
SYMBOL res 512 16 R0
SYMATTR InstName R4
SYMATTR Value 1k
SYMBOL cap 672 48 R0
SYMATTR InstName C3
SYMATTR Value 100p
SYMBOL Opamps\\UniversalOpamp2 768 160 R0
SYMATTR InstName U1
SYMBOL cap 352 176 R0
SYMATTR InstName C1
SYMATTR Value 3300p
SYMBOL res 352 128 R90
WINDOW 0 0 56 VBottom 2
WINDOW 3 32 56 VTop 2
SYMATTR InstName R1
SYMATTR Value 150
TEXT 520 344 Left 2 !.ac oct 10 10 100Meg
TEXT 520 312 Left 2 !;tran 0 100u 50u
