Version 4
SHEET 1 932 680
WIRE -208 16 -224 16
WIRE -128 16 -144 16
WIRE 128 16 0 16
WIRE -224 32 -224 16
WIRE -144 32 -144 16
WIRE 128 48 128 16
WIRE 416 48 400 48
WIRE 528 48 496 48
WIRE 688 48 528 48
WIRE 0 64 0 16
WIRE 528 64 528 48
WIRE -224 128 -224 112
WIRE -144 128 -144 112
WIRE 128 144 128 128
WIRE 192 144 128 144
WIRE 288 144 272 144
WIRE 304 144 288 144
WIRE 400 144 400 48
WIRE 400 144 384 144
WIRE 416 144 400 144
WIRE 528 144 528 128
WIRE 528 144 496 144
WIRE 592 144 528 144
WIRE 0 160 0 144
WIRE 128 160 128 144
WIRE 688 160 688 48
WIRE 688 160 656 160
WIRE 720 160 688 160
WIRE 752 160 720 160
WIRE 288 176 288 144
WIRE 400 176 400 144
WIRE 592 176 560 176
WIRE 720 192 720 160
WIRE 128 288 128 240
WIRE 288 288 288 240
WIRE 400 288 400 240
WIRE 560 288 560 176
WIRE 720 288 720 272
FLAG 0 160 0
FLAG 288 288 0
FLAG 400 288 0
FLAG 560 288 0
FLAG 752 160 OUT
IOPIN 752 160 Out
FLAG 720 288 0
FLAG -224 128 0
FLAG -144 128 0
FLAG -224 16 VCC
FLAG -144 16 VEE
FLAG 624 128 VCC
FLAG 624 192 VEE
FLAG 128 288 0
SYMBOL Opamps\\UniversalOpamp2 624 160 R0
SYMATTR InstName U1
SYMBOL res 288 128 R90
WINDOW 0 0 56 VBottom 2
WINDOW 3 32 56 VTop 2
SYMATTR InstName R1
SYMATTR Value 1.3k
SYMBOL res 400 128 R90
WINDOW 0 0 56 VBottom 2
WINDOW 3 32 56 VTop 2
SYMATTR InstName R2
SYMATTR Value 43k
SYMBOL res 512 128 R90
WINDOW 0 0 56 VBottom 2
WINDOW 3 32 56 VTop 2
SYMATTR InstName R3
SYMATTR Value 100k
SYMBOL res 512 32 R90
WINDOW 0 0 56 VBottom 2
WINDOW 3 32 56 VTop 2
SYMATTR InstName R4
SYMATTR Value 56k
SYMBOL cap 272 176 R0
SYMATTR InstName C1
SYMATTR Value 680p
SYMBOL cap 384 176 R0
SYMATTR InstName C2
SYMATTR Value 47p
SYMBOL cap 512 64 R0
SYMATTR InstName C3
SYMATTR Value 3.3p
SYMBOL voltage 0 48 R0
WINDOW 3 -271 156 Left 2
WINDOW 123 -15 191 Left 2
WINDOW 39 0 0 Left 2
SYMATTR Value PULSE(-1 1 0 2.5u 2.5u 0 5u)
SYMATTR Value2 AC 1
SYMATTR InstName V1
SYMBOL res 704 176 R0
SYMATTR InstName R5
SYMATTR Value 1k
SYMBOL voltage -224 16 R0
WINDOW 123 0 0 Left 2
WINDOW 39 0 0 Left 2
SYMATTR InstName V2
SYMATTR Value 2.5V
SYMBOL voltage -144 16 R0
WINDOW 123 0 0 Left 2
WINDOW 39 0 0 Left 2
SYMATTR InstName V3
SYMATTR Value -2.5V
SYMBOL res 112 32 R0
SYMATTR InstName R6
SYMATTR Value {Ra}
SYMBOL res 112 144 R0
SYMATTR InstName R7
SYMATTR Value {10k-Ra}
TEXT 480 344 Left 2 !;tran 0 100u 50u
TEXT 480 376 Left 2 !.ac oct 10 100 1G
TEXT 480 416 Left 2 !.step param Ra list 10 1k 5k 9k 9.9k
