Version 4
SHEET 1 880 680
WIRE -352 -16 -368 -16
WIRE -272 -16 -288 -16
WIRE -368 0 -368 -16
WIRE -288 0 -288 -16
WIRE -16 16 -128 16
WIRE 592 16 448 16
WIRE -16 32 -16 16
WIRE -368 96 -368 80
WIRE -288 96 -288 80
WIRE -128 96 -128 16
WIRE 448 96 448 16
WIRE 480 96 448 96
WIRE 592 112 592 16
WIRE 592 112 544 112
WIRE 624 112 592 112
WIRE -16 128 -16 112
WIRE 96 128 -16 128
WIRE 192 128 176 128
WIRE 208 128 192 128
WIRE 304 128 288 128
WIRE 320 128 304 128
WIRE 416 128 400 128
WIRE 480 128 416 128
WIRE -16 144 -16 128
WIRE 192 160 192 128
WIRE 304 160 304 128
WIRE 416 160 416 128
WIRE -128 192 -128 176
WIRE -16 240 -16 224
WIRE 192 240 192 224
WIRE 304 240 304 224
WIRE 416 240 416 224
FLAG -16 240 0
FLAG 192 240 0
FLAG 304 240 0
FLAG 416 240 0
FLAG -128 192 0
FLAG 624 112 OUT
IOPIN 624 112 Out
FLAG -368 96 0
FLAG -288 96 0
FLAG -368 -16 VCC
FLAG -288 -16 VEE
FLAG 512 80 VCC
FLAG 512 144 VEE
SYMBOL res 192 112 R90
WINDOW 0 0 56 VBottom 2
WINDOW 3 32 56 VTop 2
SYMATTR InstName R1
SYMATTR Value 820
SYMBOL res 304 112 R90
WINDOW 0 0 56 VBottom 2
WINDOW 3 32 56 VTop 2
SYMATTR InstName R2
SYMATTR Value 820
SYMBOL res 416 112 R90
WINDOW 0 0 56 VBottom 2
WINDOW 3 32 56 VTop 2
SYMATTR InstName R3
SYMATTR Value 820
SYMBOL cap 176 160 R0
SYMATTR InstName C1
SYMATTR Value 1n
SYMBOL cap 288 160 R0
SYMATTR InstName C2
SYMATTR Value 1n
SYMBOL cap 400 160 R0
SYMATTR InstName C3
SYMATTR Value 1n
SYMBOL res -32 16 R0
SYMATTR InstName R4
SYMATTR Value {Ra}
SYMBOL res -32 128 R0
SYMATTR InstName R5
SYMATTR Value {10k-Ra}
SYMBOL voltage -128 80 R0
WINDOW 3 -296 155 Left 2
WINDOW 123 -296 183 Left 2
WINDOW 39 0 0 Left 2
SYMATTR Value PULSE(-1 1 0 2.5u 2.5u 0 5u)
SYMATTR Value2 AC 1
SYMATTR InstName V1
SYMBOL Opamps\\UniversalOpamp2 512 112 R0
SYMATTR InstName U1
SYMBOL voltage -368 -16 R0
WINDOW 123 0 0 Left 2
WINDOW 39 0 0 Left 2
SYMATTR InstName V2
SYMATTR Value 2.5V
SYMBOL voltage -288 -16 R0
WINDOW 123 0 0 Left 2
WINDOW 39 0 0 Left 2
SYMATTR InstName V3
SYMATTR Value -2.5V
TEXT 32 320 Left 2 !.step param Ra list 10 1k 5k 9k 9.9k
TEXT 32 352 Left 2 !.tran 0 100u 50u
TEXT 40 384 Left 2 !;ac oct 10 10 1G
